/---------------------------------------------------------------------
/ TELEMAC2D Version v7p3
/ VALIDATION TEST FOR RAIN IN 2D- here option 3:
/   1- case without infiltration
/   2- case with CN rainfall-runoff model and CN values in formatted 
/      data file
/   3- case with CN rainfall-runoff model and CN values in geometry
/      file and rainfall defined as a hyetograph in formatted data file
/
/  Statistics of CPU Time
/
/  Lenovo D30 2.8 MHz Nag compil.(1procs): 1s   version 7.2 20/08/16
/  Lenovo D30 2.8 MHz Nag compil.(8procs): <1s  version 7.2 20/08/16
/
/---------------------------------------------------------------------
RAINFALL-RUNOFF MODEL                    = 1
DURATION OF RAIN OR EVAPORATION IN HOURS = 12.
ANTECEDENT MOISTURE CONDITIONS           = 3
OPTION FOR INITIAL ABSTRACTION RATIO     = 1
NUMBER OF PRIVATE ARRAYS = 4
NAMES OF PRIVATE VARIABLES = 'CN                              '
FORMATTED DATA FILE 1 =hyeto_Bagaud_PM0018h_T0100an.txt
RAIN OR EVAPORATION                      = YES
/
/---------------------------------------------------------------------
/ EQUATIONS
/---------------------------------------------------------------------

FRICTION COEFFICIENT   =15
LAW OF BOTTOM FRICTION =3
VELOCITY DIFFUSIVITY   =1.E-6
TURBULENCE MODEL       =1

/---------------------------------------------------------------------
/ EQUATIONS, BOUNDARY CONDITIONS
/---------------------------------------------------------------------
PRESCRIBED ELEVATIONS        =0.5
PRESCRIBED ELEVATION2S   
PRESCRIBED ELEVATION3S   
PRESCRIBED ELEVATION4S    
PRESCRIBED ELEVATION5S  
PRESCRIBED ELEVATION6S  
PRESCRIBED ELEVATION7S  
PRESCRIBED ELEVATION8S  
PRESCRIBED ELEVATION9S  
PRESCRIBED ELEVATION10S  
PRESCRIBED ELEVATION11S  
PRESCRIBED ELEVATION12S  
PRESCRIBED ELEVATION13S  
PRESCRIBED ELEVATION14S  
PRESCRIBED ELEVATION15S  
PRESCRIBED ELEVATION16S    
OPTION FOR LIQUID BOUNDARIES =1
OPTION FOR LIQUID BOUNDARIE2S
OPTION FOR LIQUID BOUNDARIE3S
OPTION FOR LIQUID BOUNDARIE4S
MAXIMUM NUMBER OF BOUNDARIES=800
/---------------------------------------------------------------------
/ EQUATIONS, INITIAL CONDITIONS
/---------------------------------------------------------------------
INITIAL CONDITIONS ='CONSTANT ELEVATION'
INITIAL ELEVATION  =0.0
/---------------------------------------------------------------------
/ INPUT-OUTPUT, FILES
/---------------------------------------------------------------------
BOUNDARY CONDITIONS FILE ='Cartino2D.cli'
GEOMETRY FILE            ='Cartino2D.slf'
RESULTS FILE             ='Cartino2D.res'
FORTRAN FILE             ='USER_FORTRAN' 
/---------------------------------------------------------------------
/ INPUT-OUTPUT, GRAPHICS AND LISTING
/---------------------------------------------------------------------
LISTING PRINTOUT PERIOD         =300
INFORMATION ABOUT SOLVER        =YES
GRAPHIC PRINTOUT PERIOD         =300
VARIABLES FOR GRAPHIC PRINTOUTS =U,V,B,H,S,Z,M,F,Q,MAXZ,TMXZ,MAXV,N,O,R
MASS-BALANCE                    =true
/---------------------------------------------------------------------
/ INPUT-OUTPUT, INFORMATION
/---------------------------------------------------------------------
VALIDATION =NO
TITLE      ='Test Rain'
/---------------------------------------------------------------------
/ NUMERICAL PARAMETERS
/---------------------------------------------------------------------
TREATMENT OF NEGATIVE DEPTHS        =2
FREE SURFACE GRADIENT COMPATIBILITY =0.9
DISCRETIZATIONS IN SPACE            =11;11
MATRIX STORAGE                      =3
SUPG OPTION                         =0;0
TYPE OF ADVECTION                   =14;5
CONTINUITY CORRECTION               =YES
TREATMENT OF THE LINEAR SYSTEM      =2
TIME STEP                           =1
TIDAL FLATS                         =YES
DURATION                            =3600
/---------------------------------------------------------------------
/ NUMERICAL PARAMETERS, SOLVER
/---------------------------------------------------------------------
SOLVER                                  =1
SOLVER ACCURACY                         =1.E-6
MAXIMUM NUMBER OF ITERATIONS FOR SOLVER =2000
MAXIMUM NUMBER OF ITERATIONS FOR ADVECTION SCHEMES = 500
/---------------------------------------------------------------------
/ NUMERICAL PARAMETERS, VELOCITY-CELERITY-HIGHT
/---------------------------------------------------------------------
H CLIPPING                 =NO
IMPLICITATION FOR DEPTH    =1.
IMPLICITATION FOR VELOCITY =1.
MASS-LUMPING ON H          =1.
